Version 4
SHEET 1 880 680
WIRE 96 64 48 64
WIRE 192 64 96 64
WIRE 304 64 192 64
FLAG 48 64 0
SYMBOL voltage 48 64 R0
SYMATTR InstName V1
SYMATTR Value 0
SYMBOL res 192 64 R0
SYMATTR InstName R1
SYMATTR Value 1k
SYMBOL diode 304 64 R0
SYMATTR InstName D1
SYMBOL gnd 48 96 R0
TEXT 40 10 Left 2 !.dc V1 0 5 0.01
